Project_2411.raw
VERSION 34
@ Stage 3 Project Data Update Package
@ =====================================
@! Stage 3 Project Data Update Package for P2411-Greengate Jurassic MPC Solar Battery
@! Created by Stantec Consulting Ltd. on August 24, 2022
@! This IDEV file is dependent on the completion of P2411
1,   100.00, 34,     0,     1, 60.00     / PSS(R)E-34.5    FRI, AUG 26 2022  15:32
2021RC_2023SP_RCE-HIGH_TIE-ECON_WIND-0.85_P
***SUBJECT TO CEII NDA*** SEE LONG TITLE FOR DISCLAIMER
BAT_PURGBRN,225,260,'44'
RDCH
1
547023,'944AL TAP   ', 240.0000,1,  48,  99,  17,1.02960,  27.9390,1.10000,0.90000,1.10000,0.90000
549072,'JURASSIC 1  ', 240.0000,1,  48,  99, 501,1.02964,  27.9775,1.10000,0.90000,1.10000,0.90000
561072,'JURASSIC 2  ',  34.5000,1,  48,  99, 501,0.99614,  39.0766,1.10000,0.90000,1.10000,0.90000
561073,'JURASSIC 8  ',  34.5000,1,  48,  99,  99,1.02712,  28.5338,1.10000,0.90000,1.10000,0.90000
562072,'JURASSIC 3  ',  34.5000,1,  48,  99, 501,0.99614,  39.0766,1.10000,0.90000,1.10000,0.90000
562073,'JURASSIC 9  ',  34.5000,1,  48,  99,  99,1.02712,  28.5338,1.10000,0.90000,1.10000,0.90000
564072,'JURASSIC 4  ',  34.5000,1,  48,  99, 501,1.00593,  40.4760,1.10000,0.90000,1.10000,0.90000
565072,'JURASSIC 5  ',  34.5000,1,  48,  99, 501,1.00593,  40.4760,1.10000,0.90000,1.10000,0.90000
567072,'JURASSIC 6  ',   0.6300,2,  48,  99, 501,1.00000,  15.7438,1.10000,0.90000,1.10000,0.90000
568072,'JURASSIC 7  ',   0.6300,2,  48,  99, 501,1.00000,  15.7438,1.10000,0.90000,1.10000,0.90000
0 / END OF BUS DATA, BEGIN LOAD DATA
564072,'1 ',   1,  48,  36,     0.750,     0.375,     0.000,     0.000,     0.000,     0.000, 501,    1,  0,     0.000,     0.000,   0
565072,'2 ',   1,  48,  36,     0.750,     0.375,     0.000,     0.000,     0.000,     0.000, 501,    1,  0,     0.000,     0.000,   0
0 / END OF LOAD DATA, BEGIN FIXED SHUNT DATA
0 / END OF FIXED SHUNT DATA, BEGIN GENERATOR DATA
567072,'G1',   153.760,    -6.647,    72.600,   -49.300,1.00000,567072,   175.000, 0.00000E+0, 9.99990E+4, 0.00000E+0, 0.00000E+0,1.00000,1,  100.0,   155.000,     0.000, 501,1.0000,   0,   1.0,   0,   1.0,   0,   1.0, 1, 1.0000
568072,'G2',   153.760,    -6.647,    72.600,   -49.300,1.00000,568072,   175.000, 0.00000E+0, 9.99990E+4, 0.00000E+0, 0.00000E+0,1.00000,1,  100.0,   155.000,     0.000, 501,1.0000,   0,   1.0,   0,   1.0,   0,   1.0, 1, 1.0000
0 / END OF GENERATOR DATA, BEGIN BRANCH DATA
   225,547023,'44', 6.29700E-3, 3.58080E-2,   0.14354,'                                        ',  550.00,  679.00,  815.00,    0.00,    0.00,    0.00,    0.00,    0.00,    0.00,    0.00,    0.00,    0.00,  0.00000,  0.00000,  0.00000,  0.00000,1,1,  55.58,  17,1.0000
   260,547023,'44', 1.92600E-3, 1.09520E-2,   0.04390,'                                        ',  550.00,  679.00,  815.00,    0.00,    0.00,    0.00,    0.00,    0.00,    0.00,    0.00,    0.00,    0.00,  0.00000,  0.00000,  0.00000,  0.00000,1,1,  17.00,  17,1.0000
547023,549072,'44', 7.66100E-5, 2.15020E-4,   0.00196,'                                        ',  345.00,  385.00,  420.00,    0.00,    0.00,    0.00,    0.00,    0.00,    0.00,    0.00,    0.00,    0.00,  0.00000,  0.00000,  0.00000,  0.00000,1,2,   0.50, 501,1.0000
561072,564072,'L1', 8.18800E-3, 1.52000E-2,   0.11380,'                                        ',  160.00,  160.00,  160.00,    0.00,    0.00,    0.00,    0.00,    0.00,    0.00,    0.00,    0.00,    0.00,  0.00000,  0.00000,  0.00000,  0.00000,1,1,   1.00, 501,1.0000
562072,565072,'L2', 8.18800E-3, 1.52000E-2,   0.11380,'                                        ',  160.00,  160.00,  160.00,    0.00,    0.00,    0.00,    0.00,    0.00,    0.00,    0.00,    0.00,    0.00,  0.00000,  0.00000,  0.00000,  0.00000,1,1,   1.00, 501,1.0000
0 / END OF BRANCH DATA, BEGIN SYSTEM SWITCHING DEVICE DATA
0 / END OF SYSTEM SWITCHING DEVICE DATA, BEGIN TRANSFORMER DATA
549072,561072,561073,'T1', 1, 1, 1, 7.70000E-04,-6.50000E-04,2,'1080ST1                                 ',1, 501,1.0000,   0,1.0000,   0,1.0000,   0,1.0000,'YN0yn0d1    ', 0
 2.18800E-3, 1.30783E-1,   100.00, 3.96000E-3, 2.48748E-1,   100.00, 2.18800E-3, 1.31513E-1,   100.00,1.02712,  28.5338
1.00000,   0.000,   0.000,   200.00,   200.00,   200.00,     0.00,     0.00,     0.00,     0.00,     0.00,     0.00,     0.00,     0.00,     0.00,-1, 561072, 1.10000, 0.90000, 1.10000, 0.90000,  17, 0, 0.00000, 0.00000,  0.000,   0
1.00000,   0.000,   0.000,   100.00,   100.00,   100.00,     0.00,     0.00,     0.00,     0.00,     0.00,     0.00,     0.00,     0.00,     0.00, 0,      0, 1.10000, 0.90000, 1.10000, 0.90000,  17, 0, 0.00000, 0.00000,  0.000,   0
1.00000,   0.000, -30.000,   100.00,   100.00,   100.00,     0.00,     0.00,     0.00,     0.00,     0.00,     0.00,     0.00,     0.00,     0.00, 0,      0, 1.10000, 0.90000, 1.10000, 0.90000,  17, 0, 0.00000, 0.00000,  0.000,   0
549072,562072,562073,'T1', 1, 1, 1, 7.70000E-04,-6.50000E-04,2,'1080ST2                                 ',1, 501,1.0000,   0,1.0000,   0,1.0000,   0,1.0000,'YN0yn0d1    ', 0
 2.18800E-3, 1.30783E-1,   100.00, 3.96000E-3, 2.48748E-1,   100.00, 2.18800E-3, 1.31513E-1,   100.00,1.02712,  28.5338
1.00000,   0.000,   0.000,   200.00,   200.00,   200.00,     0.00,     0.00,     0.00,     0.00,     0.00,     0.00,     0.00,     0.00,     0.00,-1, 562072, 1.10000, 0.90000, 1.10000, 0.90000,  17, 0, 0.00000, 0.00000,  0.000,   0
1.00000,   0.000,   0.000,   100.00,   100.00,   100.00,     0.00,     0.00,     0.00,     0.00,     0.00,     0.00,     0.00,     0.00,     0.00, 0,      0, 1.10000, 0.90000, 1.10000, 0.90000,  17, 0, 0.00000, 0.00000,  0.000,   0
1.00000,   0.000, -30.000,   100.00,   100.00,   100.00,     0.00,     0.00,     0.00,     0.00,     0.00,     0.00,     0.00,     0.00,     0.00, 0,      0, 1.10000, 0.90000, 1.10000, 0.90000,  17, 0, 0.00000, 0.00000,  0.000,   0
564072,567072,     0,'T3', 1, 1, 1, 0.00000E+00, 0.00000E+00,2,'1080ST3                                 ',1, 501,1.0000,   0,1.0000,   0,1.0000,   0,1.0000,'Dyn1        '
 1.50000E-3, 6.00000E-2,   100.00
1.00000,   0.000,  30.000,   166.00,   166.00,   166.00,     0.00,     0.00,     0.00,     0.00,     0.00,     0.00,     0.00,     0.00,     0.00, 1, 564072, 1.10000, 0.90000, 1.05000, 0.95000,   5, 0, 0.00000, 0.00000,  0.000,   0
1.00000,   0.000
565072,568072,     0,'T4', 1, 1, 1, 0.00000E+00, 0.00000E+00,2,'1080ST4                                 ',1, 501,1.0000,   0,1.0000,   0,1.0000,   0,1.0000,'Dyn1        '
 1.50000E-3, 6.00000E-2,   100.00
1.00000,   0.000,  30.000,   166.00,   166.00,   166.00,     0.00,     0.00,     0.00,     0.00,     0.00,     0.00,     0.00,     0.00,     0.00, 1, 565072, 1.10000, 0.90000, 1.05000, 0.95000,   5, 0, 0.00000, 0.00000,  0.000,   0
1.00000,   0.000
0 / END OF TRANSFORMER DATA, BEGIN AREA DATA
  48,     0,     0.000,  1000.000,'EMPRESS     '
0 / END OF AREA DATA, BEGIN TWO-TERMINAL DC DATA
0 / END OF TWO-TERMINAL DC DATA, BEGIN VSC DC LINE DATA
0 / END OF VSC DC LINE DATA, BEGIN IMPEDANCE CORRECTION DATA
0 / END OF IMPEDANCE CORRECTION DATA, BEGIN MULTI-TERMINAL DC DATA
0 / END OF MULTI-TERMINAL DC DATA, BEGIN MULTI-SECTION LINE DATA
0 / END OF MULTI-SECTION LINE DATA, BEGIN ZONE DATA
  36,'HOUSE LO    '
  99,'NONCLASS    '
0 / END OF ZONE DATA, BEGIN INTER-AREA TRANSFER DATA
0 / END OF INTER-AREA TRANSFER DATA, BEGIN OWNER DATA
  17,'ALTALINK    '
  99,'UNSPECIF    '
 501,'GREENGAT    '
0 / END OF OWNER DATA, BEGIN FACTS DEVICE DATA
0 / END OF FACTS DEVICE DATA, BEGIN SWITCHED SHUNT DATA
0 / END OF SWITCHED SHUNT DATA, BEGIN GNE DATA
0 / END OF GNE DATA, BEGIN INDUCTION MACHINE DATA
0 / END OF INDUCTION MACHINE DATA, BEGIN SUBSTATION DATA
0 / END OF SUBSTATION DATA
@ Done
