@! This is a copy of Master Dynamic File released with 2019 SP OPBC R1
@! This version contains all machines data in the original release
@! Minor formatting has been done to better suit OC weekly case
@! Please apply this dynamic file to OC weekly case
@!
@!
/ *****-*****-*****-***** Fort Nelson 1  ***** Area 17  *****  58MVA  @ 13.8kV --  Gas Turbine  *****  Not Tested!!! USE WITH CAUTION OR GNET OUT
/
/  Dynamic Model Data in PTI PSS/E Format for Fort Nelson G1, validated by Powertech Labs, April 2013 /
/
1015   'GENROU'   1      9   0.036  0.78  0.034  1.95  0.0 2.103  2.0  0.23    0.27  0.144 0.122 0.095  0.348/
1015 'ESAC6A'  1  0.01  650 0.01  0.13  29   4    30     -30    30     -30   0.7    40   30    30    1   0.1  0.1  1.5  1   4.5   0.05   6  0.2 /
/1015 'COMP'  1   0.02
1015  'GGOV1'  1     1   1   0.057   1.0   0.05   -0.05    8     1.3     0   1.0   1.0  0.0   0.5    1    0.11  0.5  0.0  0.0    3.0    1.0   0.2    1     0.0  0.1    -0.5   0.00  99.0 10.0 0.1 58.588    0.0 4.0  5.0  99.  -99. /
1015 'PSS2B'   1   1   0       3   0      5  1  5   5  0   5   0   5   1.39  1  0.5  0.1    3   0.211 0.025 0.211 0.025 0.211 0.025   999    -999    999    -999    0.1    -0.1/

/ *****-*****-*****-***** Fort Nelson 2  ***** Area 17  *****  32.94MVA  @ 13.8kV --  Steam Turbine  ***** Tested on 2012-03-07
1019 'GENSAL' 2  10.4 0.05 0.12 3.0 4.5 2.096 1.11 0.29 0.24 0.12 0.07 0.2    /Fort Nelson 2 - Generator
1019 'COMP' 2  -0.04     /Fort Nelson 2 - Compensator
1019 'PSS2A' 2 1 0 3 0 5 1 5.0 5.0 0.0 5.0 0.0 4.0 1.37 1.0 0.5 0.1 2.5 0.25 0.035 0.25 0.035 0.1 -0.1    /Fort Nelson 2 - Stabilizer
1019 'ESST1A' 2 1 1 0.0 0.126 -0.107 8.8 22.0 0.02 0.02 270.0 0.003 20.95 -17.8 20.95 -17.8 0.0 0.0 0.01 0.0 5.01    /Fort Nelson 2 - Exciter
1019 'IEEEG1' 2  0 0 18.8 0.0 0.0 0.1 0.3 -0.3 1.0 0.0 6.0 1.0 0.0 0.0 0.0 0.0 0.0 0.0 0.0 0.0 0.0 0.0    /Fort Nelson 2 - TurbineGovernor
1019 'MNLEX2' 2  0.0 0.01 300.0 1.0 0.65 1.37 1.735     /Fort Nelson 2 - Exciter Limiter
/
/
@! Bighorn: Unit 1 Prepared by Kestrel Power Engineering  16-Aug-2016

102  'USRMDL'  1  'GENTPJU1', 1, 1, 0, 16, 6, 1, 4.400,0.020,0.000,0.190, 3.52,0.000, 1.480,0.820,0.342,0.820,0.280,0.280,0.200, 0.2100,0.6250,0.0700 / 
102 'DC4B'  1 ,1,1,0.005,156.000,139.000,48.000,0.040,21.7,-19.4,0.689,0.005,1.000,1.680,0.000,1.000,0.000,1.259,0.100,1.679,0.150 / 
102 'PSS2B'  1 ,1,0,3,0,5,1,10.000,10.000,0.000,10.000,0.000,10.000,1.420,1.000,0.500,0.100,5.000,0.114,0.025,0.114,0.025,0.114,0.025,2.000,-2.000,2.000,-2.000,0.050,-0.050 / 
102 'HYGOV'  1 ,0.055,0.320,5.000,0.050,0.100,0.109,1.000,0.000,1.000,1.130,0.000,0.100 / 
/
/
/
/  Dynamic Model Data in PTI PSS/E Format for Muskeg River revalidated by Powertech in November 2014
/ 
/              I  T'do  T"do  T'qo  T"qo   H      D    Xd     Xq    X'd   X'q    X"d   Xl   S1.0 S1.2/ 
10236 'GENROU' 1  9.8  0.022  0.46  0.045  5.977  0.0  2.095  1.997 0.299 0.454 0.208 0.177 0.10 0.45 /Muskeg G1 - Generator                
/              I  Tr    Kpr Kir Kdr Tdr Vrmax Vrmin Kpa Kia Vamax Vamin  Kp  Kl  Kf1 Kf2 Kf3 Tf3 Kc  Kd   Ke  Te  Vfemax Vemin E1   Se1  E2   Se2/
10236  'AC7B'  1  0.02  50  50  0   1.0  26.1  0    40  68  59.1  -63.6   1   0   0  1    0   1  0.1 2.5  1.0 1.0 19.5   0.01  3.26 0.01 4.35 0.03/
/             I  LDC
10236 'COMP'  1  0.0   /MuskegG1 - Compensator
/
/               I   Rsel Flag   R    Tpele  maxerr minerr Kpgov Kigov Kdgov Tdgov Vmax Vmin Tact Kturb Wfnl  Tb   Tc  Teng Tfload Kpload Kiload Ldref Dm  Ropen Rclose Kimw Aset Ka  Ta  Trate db Tsa Tsab Rup  Rdown
10236 'GGOV1'   1    1    1    0.061  2.5    0.05  -0.05  5.0   0.8   0.0   1.0   1.0  0.15 0.5  1.5  0.20   0.2  0.0  0.0   3.0    2.0   0.67   1.0  0   0.3   -0.3   0.0  99.0 10.0 0.1 104.7 0  4.0  5.0  99. -99. /  Muskeg G2 - turbine-governor
/
/	         ICS1 REMBUS1  ICS2  REMBUS2 M  N  Tw1  Tw2  T6  Tw3  Tw4  T7  Ks2  Ks3 T8  T9  Ks1 T1   T2   T3   T4   Vstmax  Vstmin		
10236 'PSS2A'  1  1     0    3      0    5  1   2    2   0   2    0    2   0.17  1  0.5 0.1 15  0.22 0.03 0.22 0.03  0.1    -0.1  / Muskeg G1 - Stabilizer (revalidated)/
/
/
/
/ *****-*****-*****-***** Rainbow 1  ***** Area 17  *****  32MVA  @ 14.4kV --  Gas Turbine  ***** Tested on 1999-02-01
1031 'GENROU' 1  6.81 0.13 0.7 0.13 12.6 0.0 1.1 1.08 0.127 0.13 0.07 0.05 0.23 0.53    /Rainbow 1 - Generator
1031 'EXST1' 1  0.0 0.2 -0.2 0.0 0.0 40.0 0.14 2.0 0.0 0.0 0.055 0.5    /Rainbow 1 - Exciter
1031 'GAST' 1  0.032 5.0 0.1 3.0 1.0 1.0 1.0 -0.1 0.15     /Rainbow 1 - TurbineGovernor
/
/ *****-*****-*****-***** Rainbow 2  ***** Area 17  *****  49MVA  @ 14.4kV --  Gas Turbine  ***** Tested on 2011-08-16
1032 'GENROU' 2  5.6 0.11 0.6 0.11 7.5 0.0 2.03 1.7 0.22 0.3 0.145 0.13 0.101 0.24    /Rainbow 2 - Generator
1032 'ESDC1A' 2  0.02 50.0 0.02 1.0 1.0 2.1 0.0 1.0 1.0 0.22 3.0 0.0 4.5 0.3 6.0 0.75    /Rainbow 2 - Exciter
1032 'GAST' 2  0.084 1.2 0.1 3.0 0.9 1.0 1.0 0.0 0.15     /Rainbow 2 - TurbineGovernor
1032	'IEEEVC'  2	0	0.2	/
/
/ *****-*****-*****-***** Rainbow 3  ***** Area 17  *****  21.7MVA  @ 14.4kV --  Gas Turbine  ***** Tested on 1999-02-01
1033 'GENROU' 3  6.81 0.13 0.7 0.13 15.0 0.0 1.1 1.08 0.127 0.13 0.09 0.05 0.15 0.35    /Rainbow 3 - Generator
1033 'EXST1' 3  0.0 0.2 -0.2 1.5 3.0 40.0 0.15 2.3 0.0 0.0 0.0 1.0    /Rainbow 3 - Exciter
1033 'GAST' 3  0.03 10.0 0.1 3.0 1.0 1.0 1.0 -0.1 0.15     /Rainbow 3 - TurbineGovernor
/
/
/ ******  Revised Dynamic Model Data in PTI PSS/E Format for Rainbow Lake Unit #4 Re-validated by Powertech Labs in Fenruary 2013
/ Dynamic Model Data in PTI PSS/E Format for Rainbow Lake Unit #4 Re-validated by Powertech Labs in Fenruary 2013
/
1035 'GENROU' 4   6.6  0.032 0.78 0.034 1.80 0.0  2.367  2.159 0.25 0.27 0.162 0.122 0.174 0.404      /
1035 'IEEEST' 4 3   0   0.0 0.0 0.0 0.0 0.0 0.0 0.1 0.1  0.0 0.01 0.94 0.94 -1.01  0.05  -0.05   0.0  0.0   /
1035   'AC8B',   4    0.01,  60,    50,    11,      0.1,  10.3,    1.5,   1,   0,    10.3,     0,    0.1,  1.5, 1,  0.7,  20,     0,  3.75, 0.5,  5.0, 0.66/
1035 'GGOV1'   4   1    1   0.055   0.1  0.05  -0.05  8.0  1.5   0.0   1.0   1.0  0.15  0.1  1.2   0.20  0.5 0.0 0.0  3.0    2.0    0.67   1.0   0. 0.3   -0.3    0.0  99.0 10.0 0.1 58.588  0.0 4.0 5.0  99. -99. /
/
/
/ *****-*****-*****-***** Rainbow5  ***** Area 17  *****  60MVA  @ 14.4kV --  Gas Turbine  ***** validated by Powertech in August 2014
/
/  Dynamic Model Data in PSSE Format for Rainbow Lake Unit 5, validated by Powertech in August 2014
/
1037  'GENROU' 5   9.6   0.024 0.597 0.047 2.45 0.0  2.30  2.230 0.31 0.415 0.198 0.168 0.047 0.1565      /
1037  'AC8B'  5   .01  84   5.0  20  0.1  99.    -99.    3.0  .0   23.4  -1.2   0.6 1.9  1  0.5  20.5   0    7.3   .51  9.8  5.21 / RB5-EX
1037  'COMP'  5  -0.05  /
1037  'GGOV1'    5   1   1   0.057  1.0   0.05   -0.05  5.5   1.5   0.0   1.0    1.0  0.15  0.3  1.30   0.23  0.1  0.1  0.0    3.0    2.0   0.67  0.85  0.0   0.3  -0.3   0.0  99.0  10.0 0.1   60   0.0  4.0  5.0  99. -99. /
1037  'IEEEST' 5     3     0      0.36  0    0.016   0     0    0   0.157  1.9  1.0  0.0057 0.5  0.5   -0.222  0.1    -0.1      0     0   /RB5-PSS
/
/
/ *****-*****-*****-***** BigHorn2  ***** Area 34  *****  65.5MVA  @ 13.8kV --  Hydro  ***** Tested on 2007-12-03

108 'GENSAL' 2  4.5 0.08 0.05 3.7 0.0 1.25 0.7 0.43 0.34 0.194 0.186 0.559    /BigHorn2 - Generator
108 'IEEEVC' 2  0.0 0.0     /BigHorn2 - Compensator
108 'PSS2B' 2 1 0 3 0 5 1 10.0 10.0 0.0 10.0 0.0 10.0 1.35 1.0 0.5 0.1 5.0 
          0.15 0.04 0.2 0.05 0.15 0.01 2.0 -2.0 1.5 -1.5 0.03 -0.03   /BigHorn2 - Stabilizer
108 'ESAC8B' 2  0.01 155.5 138.7 48.0 0.04 0.5 0.01 16.4 -14.7 1.4 1.0 1.95 0.0 2.6 0.0    /BigHorn2 - Exciter
108 'HYGOV' 2  0.045 0.36 3.5 0.1 0.93 0.11 1.0 0.0 0.9 1.28 1.0 0.09    /BigHorn2 - TurbineGovernor
/
/ *****-*****-*****-***** Daishowa_G2  ***** Area 19  *****  29.5MVA  @ 13.8kV --  Combined Cycle Steam Turbine  *****   Project  1065-1 at GATE 5
/
/  Dynamic Model Data for Daishowa 29.529MVA Unit G2 Validated by CEI in November 2012
/
1087	'ESAC8B'	 2 0.008 62 54  9.6  0.04  1  0.005  8.8  -8.8  0.43  1  4.3  0.01  5.7  0.5  /DAISHOWA - G2 - /EXCITER
1087  'IEEEVC'   2      0   0.022 /DAISHOWA G2 DROOP
1087	'GENROU'  2  3.5  0.08  1.15  0.4  5.116  1  1.5  1.4	0.3  0.205	 0.14  0.1  0.282  0.906  /DAISHOWA G2 GENERATOR
1087	'PSS2A'	 2  1  0  3  0  5  1  5  5  0  5  0  5  0.489  1  0.5  0.1  3  0.15	 0.02  0.21  0.01  0.05  -0.05  /DAISHOWA G2 PSS
1087	'GGOV1'	2  -1  0   0.088  1  0.05  -0.05  9  5.8  0	1  1  0  0.22  2.65  0.14  0.34  0  0  3  1  0.67  99  0  0.1  -1  0  99  10  0.1  29.529  0  4  5  99  -99    /DAISHOWA G2 TurbineGovernor
/
/
/  Dynamic Model Data for Daishowa 47MVA Unit Validated by CEI in Septembert 2012
1087	'GENROU' 1  5.8  0.04  1.67  0.11  3   1   1.5  1.42 0.24  0.366  0.183  0.17  0.126  0.324  /Daishowa -G1 -Generator
1087	'ESAC8B' 1  0.008 93  81  16  0.04  1  0.005  7.3  -7.3  0.4  1  4.3  0.01  5.7  0.5 /
1087	'IEEEVC' 1  0  0  /DAISHOWA -G1 -AVRDROOP
1087	'PSS2A'	1  1  0  3  0  5  1  5  5  0  5  0  5  0.838  1  0.5  0.1 5  0.15 0.01 0.21 0.01  0.05  -0.05 /DAISHOWA -G1 -PSS
1087	'GGOV1'	1  -1  0  0.067  1  0.05  -0.05   8.7  5  0   1  1  0  0.2  1.2	 0.25  0.2  0  0  3  1  0.67  99  0  0.1   -1  0  99  10  0.1  47.067  0  4  5  99   -99	/DAISHOWA G1 TurbineGovernor
/
/
/
/
/ *****-*****-*****-***** LONGLAKEGT4  ***** Area 25  *****  13.53MVA  @ 13.8kV --  Cogen Gas Turbine  *****   Project  432-3 at GATE 6
11241 'GENROE' G4  8.0 0.03 3.0 0.2 1.176 0.0 2.6 1.885 0.244 0.7 0.19 0.12 0.1284 0.6203    /LONGLAKEGT4 - Generator
11241 'PSS2A' G4 3 0 0 0 1 1 5.0 0.0 0.016 5.0 0.0 0.016 0.0 0.0 0.0 0.18 -2.0 0.157 0.0151 0.157 0.0151 0.025 -0.025    /LONGLAKEGT4 - Stabilizer
/11241 'EXAC1' G4  0.022 0.0 0.0 350.0 0.02 22.5 0.0 0.8 0.14 1.3 0.0 0.65 0.35 6.5 0.048 7.24 0.081    /LONGLAKEGT4 - Exciter
/11241 'GASTWD' G4  0.056 2.2 1.2 0.0 0.0 0.1 46.0 0.0 1.2 0.17 0.0 
/          1.0 1.0 0.02 1.0 0.3 0.0 1.0 0.0 0.1 0.3 0.303 0.303 1.273 0.0 -0.273 1.273 0.0 1.0 0.0 0.88 0.2  /LONGLAKEGT4 - TurbineGovernor
/
/ *****-*****-*****-***** LONGLAKEGT3  ***** Area 25  *****  13.53MVA  @ 13.8kV --  Cogen Gas Turbine  *****   Project  432-3 at GATE 6
11241 'GENROE' G3  8.0 0.03 3.0 0.2 1.176 0.0 2.6 1.885 0.244 0.7 0.19 0.12 0.1284 0.6203    /LONGLAKEGT3 - Generator
11241 'PSS2A' G3 3 0 0 0 1 1 5.0 0.0 0.016 5.0 0.0 0.016 0.0 0.0 0.0 0.18 -2.0 0.157 0.0151 0.157 0.0151 0.025 -0.025    /LONGLAKEGT3 - Stabilizer
/11241 'EXAC1' G3  0.022 0.0 0.0 350.0 0.02 22.5 0.0 0.8 0.14 1.3 0.0 0.65 0.35 6.5 0.048 7.24 0.081    /LONGLAKEGT3 - Exciter
/11241 'GASTWD' G3  0.056 2.2 1.2 0.0 0.0 0.1 46.0 0.0 1.2 0.17 0.0 
/          1.0 1.0 0.02 1.0 0.3 0.0 1.0 0.0 0.1 0.3 0.303 0.303 1.273 0.0 -0.273 1.273 0.0 1.0 0.0 0.88 0.2  /LONGLAKEGT3 - TurbineGovernor
/
/
/ *****-*****-*****-***** WEYPOWER1  ***** Area 20  *****  57.882MVA  @ 13.8kV --  Biomass  ***** Project 816-1 at Gate 5
1146 'GENROU' 1  5.181 0.08 1.29 0.47 1.839 0.0 1.97 1.9 0.26 0.3 0.155 0.11 0.1337 0.745    /WEYPOWER1 - Generator
1146 'IEEEVC' 1  0.0 0.0     /WEYPOWER1 - Compensator
1146 'PSS2B' 1 1 0 3 0 5 1 3.0 3.0 0.0 3.0 0.0 3.0 0.82 1.0 0.5 0.1 8.0 
          0.18 0.02 0.18 0.02 1.0 5.0 2.0 -2.0 1.5 -1.5 0.05 -0.05   /WEYPOWER1 - Stabilizer
/1146 'AC8B' 1  0.0 634.0 222.0 95.0 0.01 999.0 -999.0 1.0 0.0 17.36 -14.73 
/          0.1 1.0 0.3 0.92 11.17 0.0 3.126 0.033 4.168 0.125    /WEYPOWER1 - Exciter
/1146 'GGOV1' 1 1 0 0.042 1.0 0.05 -0.05 18.0 7.0 20.0 0.01 1.0 0.0 0.5 
/          1.69 0.39 10.0 3.0 0.0 1.0 0.5 0.2 1.0 0.0 0.1 -1.0 0.0 0.01 10.0 1.0 49.2 0.0 4.0 5.0 99.0 -99.0  /WEYPOWER1 - TurbineGovernor/
1146 'GGOV1' 1  -1  0  0.067  1  0.05  -0.05   8.7  5  0   1  1  0  0.2  1.2 0.25  0.2  0  0  3  1  0.67  99  0  0.1   -1  0  99  10  0.1  47.067  0  4  5  99   -99	/DAISHOWA G1 TurbineGovernor
/
/
/ *****-*****-*****-***** HR Milner  ***** Area 22  *****  167MVA  @ 15kV --  Coal  ***** Tested on 2005-10-28
1148 'GENROU' 1  9.1 0.06 1.0 0.11 2.75 0.0 1.85 1.85 0.23 0.5 0.185 0.16 0.12 0.522    /HR Milner - Generator
1148 'PSS2A' 1 1 0 3 0 5 1 10.0 10.0 0.0 10.0 0.0 10.0 1.82 1.0 0.5 0.1 5.0 0.15 0.03 0.15 0.03 0.1 -0.1    /HR Milner - Stabilizer
1148 'ESST1A' 1 1 1 0.01 999.0 -999.0 1.0 3.5 0.0 0.0 350.0 0.01 8.02 -7.19 8.02 -7.19 0.085 0.0 1.0 2.0 2.74    /HR Milner - Exciter
1148 'IEEEG1' 1 0 0 14.3 0.18 0.0 0.15 0.1 -1.0 0.9 0.0 0.11 0.28 0.0 5.5 0.41 0.0 0.72 0.31 0.0 0.0 0.0 0.0    /HR Milner - TurbineGovernor
/
/
/
/ *****-*****-*****-***** STURGEON 1  ***** Area 23  *****  12.5MVA  @ 14.4kV --  Gas Turbine  ***** Tested on 1999-06-30
1167 'GENCLS' 1  3.5 0.1     /STURGEON 1 - Generator
/
/ *****-*****-*****-***** STURGEON 2  ***** Area 23  *****  9.38MVA  @ 4.2kV --  Gas Turbine  *****  Not Tested!!! USE WITH CAUTION OR GNET OUT
1168 'GENCLS' 2  3.5 0.1     /STURGEON 2 - Generator
/
/
/ *****-*****-*****-***** Dynamic Model Data in PTI PSS/E Format for ATCO Valley View VV1, Validated by Powertech Labs Inc, Jan 2015
/
/                I   T'do  T"do   T'qo   T"qo   H      D     Xd    Xq    X'd   X'q    X"d     Xl     S1.0   S1.2
1171, 'GENROE', 1,    9.8, 0.024, 0.6,  0.047, 2.45,  0,   2.358,  2.23, 0.27, 0.415, 0.198, 0.168, 0.078, 0.281 / 
/
/GGOV1              Rsel Flag R    Tpele maxerr minerr Kpgov Kigov Kdgov Tdgov   Vmax Vmin  Tact Kturb Wfnl   Tb  Tc  Teng Tfload Kpload Kiload Ldref  Dm  Ropen Rclose Kimw Aset   Ka   Ta  Trate  db  Tsa Tsab Rup  Rdown
1171 'GGOV1'    1   1   0   0.0585  1.0   0.05   -0.05    6.2   1.4   0.0  1.0   1.2  0.15    0.3  1.3  0.23  0.1  0.0  0.0    0.3    1.0   3.30   1.0  0.0  0.3  -0.3   0.0  99.0 10.0 0.1 46  0.0 1.0  1.0  99. -99. /
/
/AC8B            I     Tr    Kpr    Kir    Kdr      Tdr  Vpidmax   Vpidmin  Ka    Ta   Vrmax  Vrmin    Kc   Kd   Ke  Te   Vefmax  Vemin E1   SE1   E2   SE2/
1171   'AC8B',   1    0.01,  84,    5,    20,      0.1,      99,    -99,    3.,   0,     22.6,  -1.2,  0.6, 1.9, 1,  0.5,  19.8,    0,  7.3,  0.51,  9.8, 5.21/
/
/                I  ICS  IB   A1     A2        A3     A4   A5    A6    T1    T2   T3   T4       T5     T6   Ks   Lsmax   Lsmin   Vcu   Vcl/
1171 'IEEEST',  1,  3,  0,   0.36,   0.0,     0.016,   0,   0,    0,  0.157, 1.9, 1.0, 0.0151   1.88,  1.88,   -0.16,  0.10,  -0.10,  0,   0/ 
/
1171 'COMP'  1  -0.04/
/
/
/ Dynamic model data in PTI PSS/E format for ATCO Valley View VV2, validated by Powertech June 2014
/                I   T'do  T"do   T'qo   T"qo  H     D   Xd    Xq   X'd   X'q   X"d   Xl    S1.0  S1.2
1173, 'GENROU',  2,  9.9,  0.039, 2.40,  0.22, 1.26, 0,  2.55, 2.50, 0.28, 0.26, 0.16, 0.16, 0.11, 0.43 / Valley View GT2 - Generator
/               I  Rsel Flag  R   Tpele maxerr minerr Kpgov Kigov Kdgov Tdgov  Vmax Vmin   Tact  Kturb  Wfnl  Tb   Tc  Teng  Tfload Kpload Kiload Ldref  Dm  Ropen Rclose Kimw Aset   Ka   Ta  Trate  db  Tsa Tsab Rup  Rdown
1173 'GGOV1'    2   1   1   0.067  1.0   0.05   -0.05   1.8  1.2   0.5  1.0    1.0  0.15    0.2  1.65   0.18  0.1  0.1  0.0    3.0    2.0   0.67   1.0   0.5  0.3  -0.3   0.0  99.0  10.0  0.1  72   0.0  4.0  5.0  99. -99. /
/ PSS2B         I  IC1  IC2    M  N  Tw1 Tw2 T6 Tw3 Tw4 T7  Ks2  Ks3  T8  T9   Ks1   T1   T2    T3   T4   T10    T11 Vsl1max Vsl1min Vsl2max Vsl2min Vsmax Vsmin 
1173, 'PSS2B'   2, 1, 0, 3, 0, 5, 1, 10, 10, 0, 10,  0, 10, 4.35, 1, 0.5, 0.1, 2.7, 0.3, 0.02, 0.3, 0.02, 0.05, 0.02,   0.1,  -0.1,    1,       0,   0.05, -0.05/ 
/
/   AC8B       I  Tr     Kpr  Kir  Kdr  Tdr  Vpidmax Vpidmin  KA   TA    Vrmax  Vrmin Kc   Kd    KE   TE   Vfemax Vemin  E1     SE1    E2     SE2
1173 'AC8B'    2  0.02   80   5    20   0.1   31.3    0.0     1.4  0.01   31.3   0.0  0.4  0.66  1.0  1.8   17.1     0   8.130  0.228  10.84  1.56  /VV2 - Excitation system
/
1173 'COMP'  2  -0.07/
/
/
/ *****-*****-*****-***** SCOTFORD UPGRADER M5  ***** Area 33  *****  12.785MVA  @ 6.9kV --    *****  Not Tested!!! USE WITH CAUTION OR GNET OUT
12185 'GENSAL' M5  5.35 0.05 0.06 1.099 1.0 1.77 1.4 0.5 0.32 0.12 0.06 0.27    /SCOTFORD UPGRADER M5 - Generator
/
/  Dynamic Model Data in PTI PSS/E Format for Muskeg River revalidated by Powertech in July 2015
/
12236 'GENROU' 2  9.8  0.022  0.462  0.045  5.977  0.0  2.095  1.997  0.299  0.454  0.208   0.177    0.10 0.45 /Muskeg G2 - Generator                
12236  'AC7B'  2  0.02  57.3    57.3    0   1.0  21.2    0      2.768     1.183     1        -1            18     1     0     1    0      1      0.1 2.5  1.0   1     19.5   0.01     3.26  0.01  4.35  0.03//Muskeg G2-Exciter
12236 'COMP'  2  0.0   /MuskegG2 - Compensator
12236 'GGOV1'   2    1    1    0.061  2.5    0.05  -0.05   7.0   0.8     0.0   1.0   1   0.15   0.5    1.5   0.20   0.2  0.0  0.0   3.0    2.0   0.67   1.0  0   0.3   -0.3   0.0  99.0 10.0 0.1 104.7 0  4.0  5.0  99. -99. /  Muskeg G2 - turbine-governor	
12236 'PSS2A'  2   1        0     3      0    5    1     4    4    0     4    0    4   0.334  1     0.5 0.1  15   0.1 0.015 0.08  0.01    0.05    -0.05 / Muskeg G2 - Stabilizer
/
/------------------------------------------------------------------------2014_3_25 Validated data updated-------------------------------------------------------------------------------
/ 
/ *****-*****-*****-***** LONGLAKEG2  ***** Area 25  *****  100MVA  @ 13.8kV --    *****   Tested on 2013-08-30
12249 'GENROU' G2 7 .036 1.2 .2 6.386 0 1.8 1.6 .2628 .9 .2271 .1433 .06 .215/
12249 'PSS2A'  G2 1 0 3 0 5 1 5 5 0 5 0 5 .3915 1 .5 .1 15 .2 .03 .175 .03 .1 -.1/
12249 'REXSYS' G2  0   1000 0    999    0   0    0    0    0    24     -24    .03 1   0    0    1    1    0    0 
	26.1   -26.1  0   1   1.6 .1  2.7 4.85 .01     6.47 .04     0   /
12249 'GGOV1'  G2 1 1 .05 1.5 999 -999 8.6 .75 0 1 1 .08 .4 2.482 .1134 .1 0 0 3 2.35 .711 1 0 .4 -.4 0 10 10 .10 80.9 
  0 12 15 99 -99/
12249 'MAXEX2' G2 0 2.7083 2 20 1.5 40 1.05 400 1 0.002 -0.5/ Max Excitation Limiter - 
/
/ *****-*****-*****-***** LONGLAKEG1  ***** Area 25  *****  100MVA  @ 13.8kV --    *****  Tested on 2013-08-30
13249 'GENROU' G1 7 .036 1.2 .2 6.386 0 1.8 1.6 .2628 .9 .2271 .1433 .06 .215/
13249 'PSS2A'  G1 1 0 3 0 5 1 5 5 0 5 0 5 .3915 1 .5 .1 15 .2 .03 .175 .03 .1 -.1/
13249 'REXSYS' G1 0 1000 0 999 0 0 0 0 0 24 -24 .03 1 0 0 1 1 0 0 26.1 -26.1 0 1 1.6 .1 2.7 4.85 .01 6.47 .04 0 /
13249 'GGOV1'  G1 1 1 .05 1.5 999 -999 8 1 0 1 1 .08 .4 2.482 .1134 .1 0 0 3 2.35 .711 1 0 .4 -.4 0 10 10 .10 80.9  
  0 12 15 99 -99/
13249 'MAXEX2' G1 0 2.7083 2 20 1.5 40 1.05 400 1 0.002 -0.5/ Max Excitation Limiter - 
/
/
/ *****-*****-*****-***** SUNDANCE1  ***** Area 40  *****  333MVA  @ 18kV --  Coal  ***** Tested on 1998-06-01
129 'GENROU' 1  4.9 0.04 0.5 0.04 2.9 0.016 1.98 1.92 0.27 0.34 0.19 0.111 0.441 0.55                /SUNDANCE1 - Generator
129 'IEEEX1' 1  0 0.638 0.28 0.1 1.8 3.57 -3.57 0.8 0.7 0 0.035 0 1 0 2 0                            /SUNDANCE1 - Exciter
/129 'IEEEG1' 1 0 0 26.67 0.1 0 0.1 0.0765 -0.7655 0.85 0 0.1 0.285 0 2.8 0.419 0 0.25 0.296 0 0 0 0  /SUNDANCE1 - TurbineGovernor
/ WSIEG1      I  JBUS M   K    T1  T2  T3    Uo    Uc    Pmax Pmin  T4   K1   K2  T5    K3    K4   T6    K5    K6  T7  K7  K8   db1 Err    db2   GV1  Pgv1  GV2   Pgv2   GV3   Pgv3   GV4  Pgv4  GV5  Pgv5  IBLOCK
129  'WSIEG1' 1   0   0 26.67 0.1  0  0.1 0.0765 -0.7655 0.85  0   0.1 0.285  0  2.8  0.419   0   0.25  0.296  0   0   0   0   0.00 0.00  0.00  0.20  0.312 0.4  0.628  0.60  0.784  0.80 0.889  1.0  0.913  0.000 / 
/
/
/ Dynamic Model Data in PTI PSS/E Format for Sundance Unit 3 Validated by Kestrel Tested: May 14 – 21, 2015
130  'GENROU' 3 ,4.140,0.025,0.410,0.025,3.489,0.000,1.770,1.550,0.270,0.344,0.190,0.150,0.056,0.224 / 
130  'ESST1A' 3 ,1,1,0.010,99.000,-99.000,0.568,3.442,0.010,0.010,560.000,0.010,7.920,-7.101,7.920,-7.101,0.144,0.000,1.000,12.000,5.244 / 
130  'PSS2A' 3 ,1,0,3,0,5,1,10.000,10.000,0.000,10.000,0.000,10.000,1.433,1.000,1.000,0.200,9.000,0.090,0.020,0.090,0.020,0.050,-0.050 / 
130  'WSIEG1' 3 ,0,0,4.000,0.000,0.000,0.100,0.050,-0.020,1.000,0.000,0.100,0.275,0.000,4.000,0.417,0.000,0.256,0.308,0.000,0.000,0.000,0.000,0.000,0.000,0.000,0.000,0.000,1.000,0.878,0.000,0.000,0.000,0.000,0.000,0.000,0.000 / original -not working
/ PSS/E foramt dynamic model for Oldman2 Wind Farm Validated by Powertech Labs in Jan 2015
/ Primary Wind Power Plant Model is provided in the WECC 2nd generation format (REGCAU1,REECAU1,REPCAU1,WTDTAU1,VTGTPAT,FRQTPAT)
/
/
/ *****-*****-*****-***** TALISMAN-EDSON  ***** Area 29  *****  13.53MVA  @ 13.8kV --  Cogen Gas Turbine  ***** NOT TESTED!!! USE WITH CAUTION OR GNET OUT
/
13020 'GENCLS' G1  1.176 0.0/ Temporary Pending Dyre file 
/
/ *****-*****-*****-***** WESTLOCKG1  ***** Area 27  *****  21MVA  @ 13.8kV --  Biomass  *****  Not Tested!!! USE WITH CAUTION OR GNET OUT
14 'GENROU' 1  3.6 0.015 1.0 0.05 2.0 0.0 1.83 1.75 0.23 0.5 0.13 0.1 0.16 0.67    /WESTLOCKG1 - Generator
14 'SEXS' 1  0.1 10.0 100.0 0.1 0.0 3.0     /WESTLOCKG1 - Exciter
/14 'TGOV1' 1  0.05 0.5 1.0 0.3 1.0 1.0 0.0     /WESTLOCKG1 - TurbineGovernor
/
/ *****-*****-*****-***** 658SM1  ***** Area 61  *****  MVA  @ 4.16kV --    ***** Project 1084-1 at Gate 4
14010 'CIM5BL' M1 2 0.019 0.0744 4.96 0.041 0.0702 0.011 0.0403 1.0 0.06 1.2 0.6 4.85 1.2 0.48 0.0 0.0 0.0 1.0 0.0    /658SM1 - Generator
/
/ *****-*****-*****-***** 658SM2  ***** Area 61  *****  MVA  @ 4.16kV --    ***** Project 1084-1 at Gate 4
14010 'CIM5BL' M2 2 0.019 0.0744 4.96 0.041 0.0702 0.011 0.0403 1.0 0.06 1.2 0.6 4.85 1.2 0.48 0.0 0.0 0.0 1.0 0.0    /658SM2 - Generator
/
/ *****-*****-*****-***** 658SM3  ***** Area 61  *****  MVA  @ 4.16kV --    ***** Project 1084-1 at Gate 4
14010 'CIM5BL' M3 2 0.019 0.0744 4.96 0.041 0.0702 0.011 0.0403 1.0 0.06 1.2 0.6 4.85 1.2 0.48 0.0 0.0 0.0 1.0 0.0    /658SM3 - Generator
/
/ *****-*****-*****-***** 658SM4  ***** Area 61  *****  MVA  @ 4.16kV --    ***** Project 1084-1 at Gate 4
14010 'CIM5BL' M4 2 0.019 0.0744 4.96 0.041 0.0702 0.011 0.0403 1.0 0.06 1.2 0.6 4.85 1.2 0.48 0.0 0.0 0.0 1.0 0.0    /658SM4 - Generator
/
/
/ *****-*****-*****-***** MUH 2  ***** Area 25  *****  8.36MVA  @ 13.8kV --    *****   Project  432-2 at GATE 6
14241 'GENCLS' 22  3.0 0.0     /MUH 2 - Generator
/
/ *****-*****-*****-***** SHCG-1  ***** Area 38  *****  28MVA  @ 13.8kV --  Wasteheat  ***** Tested on 
/
/
14370 'USRMDL'  1 'GENTPJU1' 1 1 0 16 6 1 6.61, 0.055, 2.30, 0.05, 10.0, 0.0, 2.19, 2.04, 0.2371, 0.3560, 0.1974, 0.2170, 0.14, 0.104,  0.347,  0.08  /
14370, 'AC8B'  , 1, 0.01,  294,  12.0, 23.0,  0.1,    99.0,   -99.0, 1.0,  0.00,  45.0, -2.0,  0.53 , 1.31, 1.0, 0.8,   99.0,   0.0,  7.30, 0.51, 9.8, 5.21 / 
14370 'PSS2B'   1,  1,    0,     3,    0,   5, 1, 10.0, 10.0, 0.0, 10.0,  0.0, 10.0, 0.5,  1, 0.5, 0.1,  4, 0.16, 0.02, 0.16, 0.02, 0.16,  0.02,   0.1,   -0.1,    1,       0,   0.1,  -0.1 /
14370  'COMP'   1   -0.050 /
/
/
/ Governor model should be excluded since unit is constantly running at steam pressure control mode
/               I   R    T1   Vmax   Vmin  T2   T3   Dt    
14370  'TGOV1'  1  0.05 5.0  1.0   0.0   0.1   0.1  1.0/


/Dynamic Model Data in PSSE Format for 

1482  'GENROU' 1 ,4.870,0.020,1.000,0.060,2.43,0.000,2.184,1.791,0.382,0.64,0.298,0.206,0.070,0.300 / 
1482  'ESST1A' 1 ,1,1,0.009,0.045,-0.043,1.000,3.000,0.000,0.000,585.000,0.005,6.75,-6.44,6.75,-6.44,0.070,0.000,1.000,50.000,4.829 / 
1482  'PSS2A'  1 ,1,0,3,0,5,1,10.000,10.000,0.009,10.000,0.000,10.000,2.06,1.000,1.000,0.200,10.000,0.050,0.020,0.050,0.020,0.050,-0.050 / 
1482  'WSIEG1' 1 ,0,0,9.000,0.100,0.000,0.200,0.100,-0.200,1.000,0.000,0.396,0.299,0.000,5.500,0.244,0.000,0.411,0.457,0.000,0.000,0.000,0.000,0.000,0.000,0.000,0.000,0.000,1.000,0.910,0.000,0.000,0.000,0.000,0.000,0.000,0.000 / 
/
/
1487 'GENROU' 2  5.65   0.08 0.45  0.08  2.49  0.33  2.26 2.26  0.42  0.42  0.32  0.15  0.110  0.428  /Sheerness 2
1487 'ESST1A' 2 3   1    0.01  999.0  -999.0  1.0  1.0 1.0  1.0  200.0 0.003  15.0  -15.0    7.03  -6.19   0.07 0.0  1.0 0.0  999.0  /Unitrol 6800 ABB Settings for Sheerness 2
1487 'PSS2A'  2  1 0  3 0  5 1  6  6     0   6   0   6  1.205  1.0 0.5 0.1 10.0  0.214 0.02  0.214 0.5  0.05  -0.05 / Tuned Settings for control with NO TGR
/1487 'IEEEG1' 2 0 0 9.0  0.1 0.0 0.2 0.1 -0.2 1.0   0.0   0.396 0.299 0.0  5.5  0.244 0.0  0.411  0.457  0.0  0.0  0.0  0.0 /Sheerness 2
/
/
/ *****-*****-*****-***** Battle River 3  ***** Area 36  *****  183.33MVA  @ 16kV --  Coal  ***** Tested on 2011-10-16
1495 'GENROU' 3  7.0 0.037 0.52 0.071 2.4 0.8 2.09 1.93 0.28 0.504 0.22 0.17 0.055 0.149    /Battle River 3 - Generator
1495 'COMP' 3  0.06     /Battle River 3 - Compensator
1495 'PSS2A' 3 1 0 3 0 5 1 2.0 2.0 0.0 2.0 2.0 2.0 0.2 1.0 0.0 0.1 5.0 0.199 0.04 0.359 0.12 0.1 -0.1    /Battle River 3 - Stabilizer
1495 'ESST1A' 3 3 1 0.01 0.2 -0.2 1.8 9.0 0.01 0.008 400.0 0.003 5.1 -4.7 5.1 -4.7 0.078 0.0 1.0 0.0 999.0    /Battle River 3 - Exciter
/1495 'IEEEG1' 3 0 0 22.0 0.18 0.0 0.3 0.1 -0.2 1.0 0.0 0.19 0.25 0.0 6.0 0.4 0.0 0.365 0.35 0.0 0.0 0.0 0.0    /Battle River 3 - TurbineGovernor
/ WSIEG1      I  JBUS M   K   T1   T2  T3  Uo  Uc   Pmax Pmin  T4   K1   K2  T5  K3  K4   T6    K5  K6  T7  K7  K8   db1 Err    db2   GV1  Pgv1  GV2   Pgv2   GV3   Pgv3   GV4  Pgv4  GV5    Pgv5  IBLOCK
1495  'WSIEG1' 3  0   0 22.0 0.18 0.0 0.3 0.1 -0.2  1.0 0.0   0.19 0.25 0.0 6.0 0.4 0.0 0.365 0.35 0.0 0.0 0.0 0.0   0.00 0.00  0.00 0.32  0.16 0.414 0.3427 0.79  0.81  0.890  0.9 0.9999 0.93707 0.000 / 
/
/
/ISD 2016-01-15
/
/ SAH 2016-02-05 created stage 5 dyr data for P1547-1
/ The dyr is copied from RP Project Folder below:
/ G:\rp\05\1547\Stage_5\Project_Data_Update_Package\2014 ATCO-BR4-PSSE.Dyr
/ Battle River Unit #4 dynamic data Re-validated by Powertech Labs in March 2014
/
1496 'GENROU'   4  6.5  0.037 0.52  0.071 3.0  0.8   2.07  1.93   0.29   0.5  0.18 0.15  0.056 0.160   /BR4 generator
1496 'ESST1A'  4 3   1    0.01 0.2   -0.2  1.8  9.0 0.01  0.008  400.0 0.003  5.8    -5.3    5.8    -5.3   0.097 0.0 1.0  0.0  999 /BR4 Exciter
1496 'PSS2A'  4 1 0 3 0 5 1 2   2   0  2   0   2  0.2   1.0   0.0  0.1  4.0   0.199  0.04  0.359  0.12  0.1   -0.1  /BR4 - PSS
1496 'IEEEG1' 4 0 0 20.5 0.18 0.0 0.3 0.15 -0.3 1.0  0.0  0.19 0.45 0.0 6.0 0.2 0.0 0.365 0.35 0.0 0.0 0.0 0.0 /BR4 - TurbineGovernor
/
/
/
/ The Battle River Unit #5 dynamic data Re-validated by Powertech Labs in November 2015
/               i j, m, K,   T1, T2, T3, Uo, Uc,  Pmax, Pmin, T4,    K1,  K2, T5, K3,  K4,   T6,   K5, K6, T7, K7, K8,    db1,  Err, db2, Gv1, Pgv1, Gv2, Pgv2, GV3, Pgv3, GV4, Pgv4, GV5, Pgv5, IBlock/
/1497   'WSIEG1' 5 0  0 14.6 0.1 0.0 0.2 0.1 -0.2 1.0   0.0  0.396 0.299  0.0 4.5 0.244 0.0 0.411 0.457 0.0 0.0 0.0 0.0 0.000833  0   0   0     0     1    1     0    0    0     0     0    0     0 /
/
/              I  T'do  T"do  T'qo  T"qo  H     D    Xd    Xq    X'd    X'q   X"d   Xl   S1.0  S1.2
1497 'GENROU'  5  5.7  0.04  1.0   0.07  3.1  0.0   2.29  2.29  0.38   0.6   0.3  0.21  0.06  0.24  /
/
/IBUS, 	ESST4B, I,	TR,	KPR,  KIR,  VRMAX, VRMIN,  TA,	  KPM,  KIM,   VMMAX, VMMIN,  KG,	KP,   KI,  VBMAX,  KC, 	XL,  THETAP/
1497 'ESST4B'	  5	0.0	10.1  10.1   1.    -0.8     0.01   1    0.0     1.   -0.8     0.0 	6.8    0.00  8.5  0.1   0    0  /
/
/             I       IC1  IC2  M  N  Tw1 Tw2 T6  Tw3 Tw4 T7  Ks2   Ks3  T8   T9   Ks1  T1    T2   T3    T4    Vsmax  Vsmin
1497 'PSS2A' 5   1    0   3 0   5  1  5    5  0   5   0   5   0.973   1  0.5  0.1  10  0.15  0.03 0.1   0.02  0.1    -0.1/ / GE PSS final
/
/               i j, m, K,   T1, T2, T3, Uo, Uc,  Pmax, Pmin, T4,    K1,  K2, T5, K3,  K4,   T6,   K5, K6, T7, K7, K8,    db1,  Err, db2, Gv1, Pgv1, Gv2, Pgv2, GV3, Pgv3, GV4, Pgv4, GV5, Pgv5, IBlock/
1497   'WSIEG1' 5 0  0 14.6 0.1 0.0 0.2 0.1 -0.2 1.0   0.0  0.396 0.299  0.0 4.5 0.244 0.0 0.411 0.457 0.0 0.0 0.0 0.0 0.000833  0   0   0     0     1    1     0    0    0     0     0    0     0 /
/
/
/
/ *****-*****-*****-***** BRAZEAUHYDRO1  ***** Area 30  *****  184MVA  @ 13.8kV --  Hydro  ***** Tested on 2009-10-06
151 'GENSAL' 1  12.5 0.05 0.05 3.65 0.0 1.461 0.696 0.299 0.242 0.161 0.328 0.684    /BRAZEAUHYDRO1 - Generator
151 'IEEEVC' 1  0.0 0.0     /BRAZEAUHYDRO1 - Compensator
151 'PSS2A' 1 1 0 3 0 5 1 5.0 5.0 0.0 5.0 0.0 5.0 0.595 1.0 0.5 0.1 2.0 0.61 0.01 0.44 0.01 0.05 -0.05    /BRAZEAUHYDRO1 - Stabilizer
151 'ESAC8B' 1  0.02 180.0 20.0 25.0 0.04 0.3 0.01 9.2 -8.3 1.6 1.0 1.85 0.3 2.47 0.7    /BRAZEAUHYDRO1 - Exciter
151 'WSHYDD' 1  0.0 0.0 0.1 8.3 0.1 0.67 0.3 0.04 0.0 15.0 0.1 
          0.107 0.143 1.0 0.0 0.0 0.11 0.0 0.325 0.269 0.57 0.58 0.794 0.785 1.0 0.9 -1.0 0.5 2.3 0.0   /BRAZEAUHYDRO1 - TurbineGovernor
/
/
/ *****-*****-*****-***** WSCC GEN 1  ***** Area 15  *****  42064MVA  @ 500kV --    *****  Not Tested!!! USE WITH CAUTION OR GNET OUT
1520 'GENSAL' 1  7.123 0.055 0.08 3.9 0.204 0.93 0.615 0.305 0.241 0.168 0.158 0.543    /WSCC GEN 1 - Generator
1520 'SEXS' 1  1.0 1.0 131.5 0.036 -6.947 7.541     /WSCC GEN 1 - Exciter
1520 'IEEEG2' 1  25.0 62.906 5.881 0.439 1.177 -0.011 1.392     /WSCC GEN 1 - TurbineGovernor
/
/ *****-*****-**
/***-***** WSCC GEN 2  ***** Area 15  *****  60096.602MVA  @ 500kV --    *****  Not Tested!!! USE WITH CAUTION OR GNET OUT
1520 'GENROU' 2  5.208 0.05 0.776 0.082 3.279 0.036 1.693 1.627 0.285 0.555 0.212 0.164 0.114 0.483    /WSCC GEN 2 - Generator
1520 'SEXS' 2  0.998 1.968 140.865 0.05 -6.702 7.13     /WSCC GEN 2 - Exciter
1520 'IEEEG1' 2 0 0 18.543 0.364 0.15 0.109 0.124 -0.442 0.946 -0.01 0.336 0.305 0.0 
          7.242 0.35 0.0 0.375 0.345 0.0 0.0 0.0 0.0    /WSCC GEN 2 - TurbineGovernor
/
/ *****-*****-*****-***** WSCC GEN 3  ***** Area 15  *****  1870.9MVA  @ 500kV --    *****  Not Tested!!! USE WITH CAUTION OR GNET OUT
1520 'GENCLS' 3  6.436 1.811     /WSCC GEN 3 - Generator
/